ASSIGN dbc='Ansys_Modal.xdb',
unit=40 unformated delete
SOL 103
CEND
  TITLE = Ansys_Modal
  ECHO = NONE
  VECTOR(PLOT)=ALL
  METHOD = 1
  MEFFMASS(ALL)=Yes
  SPC = 1
BEGIN BULK
PARAM, WTMASS,1.000000
PARAM, POST, 0
EIGRL   1                       6       0                       MASS    
$ CORD SYS ------------------------------
$ Materials ------------------------------
MAT1    1       1.860+11        0.3000007870.0001.200-0522.00000                
                                        
$ Properties ------------------------------
PSHELL  1       1       0.0016001               1               0.000000
$ RBE2s from CPs ------------------------------
$ RBE2s (Rigid)  ------------------------------
$ RBE3s (Force distributed) ------------------------------
$ NODES ------------------------------
GRID    1       0       0.0000000.4010000.0000000       
GRID    2       0       0.0100000.4010000.0000000       
GRID    3       0       0.0000000.3810000.0000000       
GRID    4       0       0.0000000.3910000.0000000       
GRID    5       0       0.0100000.3810000.0000000       
GRID    6       0       0.0100000.3910000.0000000       
GRID    7       0       0.0100000.1190000.0000000       
GRID    8       0       0.0000000.1190000.0000000       
GRID    9       0       0.0000000.0990000.0000000       
GRID    10      0       0.0000000.1090000.0000000       
GRID    11      0       0.0100000.0990000.0000000       
GRID    12      0       0.0100000.1090000.0000000       
GRID    13      0       0.2000000.2410000.0000000       
GRID    14      0       0.1900000.2410000.0000000       
GRID    15      0       0.2000000.2810000.0000000       
GRID    16      0       0.2000000.2510000.0000000       
GRID    17      0       0.2000000.2610000.0000000       
GRID    18      0       0.2000000.2710000.0000000       
GRID    19      0       0.1900000.2810000.0000000       
GRID    20      0       0.1900000.2510000.0000000       
$ ... 1051 like lines cut
$ ELEMENTS ------------------------------
$ ANSYS: Combin14 (longitudinal)
$ ANSYS: Combin14 (coincident)
$ ANSYS: Combin250
$ ANSYS: Link180
$ ANSYS: Beam188
$ ANSYS: Shell 181
CQUAD4  1       1       10      9       11      12                      
CQUAD4  2       1       12      7       8       10                      
CQUAD4  3       1       18      15      19      22                      
CQUAD4  4       1       22      21      17      18                      
CQUAD4  5       1       21      20      16      17                      
CQUAD4  6       1       20      14      13      16                      
CQUAD4  7       1       4       3       5       6                       
CQUAD4  8       1       6       2       1       4                       
CQUAD4  9       1       157     984     183     152                     
CQUAD4  10      1       152     204     898     157                     
CQUAD4  11      1       183     1024    163     152                     
CQUAD4  12      1       163     205     204     152                     
CQUAD4  13      1       209     921     162     153                     
CQUAD4  14      1       153     164     210     209                     
CQUAD4  15      1       162     959     1003    153                     
CQUAD4  16      1       1003    972     164     153                     
CQUAD4  17      1       195     194     158     1058                    
CQUAD4  18      1       1058    165     196     195                     
CQUAD4  19      1       158     1032    169     1058                    
CQUAD4  20      1       169     212     165     1058                    
$ ... 980 like lines cut
$ ANSYS: Shell 281
$ ANSYS: Solid 185
$ ANSYS: Solid 186
$ ANSYS: Solid 187
$ ANSYS: Mass 21 
$ Boundary Conditions ------------------------------
$ DOF BCs (SPCs) 
SPC     1       1       4       0.000000
SPC     1       1       5       0.000000
SPC     1       1       6       0.000000
SPC     1       1       1       0.000000
SPC     1       1       2       0.000000
SPC     1       1       3       0.000000
SPC     1       2       4       0.000000
SPC     1       2       5       0.000000
SPC     1       2       6       0.000000
SPC     1       2       1       0.000000
SPC     1       2       2       0.000000
SPC     1       2       3       0.000000
SPC     1       3       4       0.000000
SPC     1       3       5       0.000000
SPC     1       3       6       0.000000
SPC     1       3       1       0.000000
SPC     1       3       2       0.000000
SPC     1       3       3       0.000000
SPC     1       4       4       0.000000
SPC     1       4       5       0.000000
$ ... 112 like lines cut
ENDDATA
