/batch
/config,noeldb,1     ! force off writing results to database
*get,_wallstrt,active,,time,wall
! ANSYS input file written by Workbench version 2020 R2
! File used for geometry attach: D:\OneDrive\3.UFSC\MS-2021.2\1.Vibroacustica_computacional\work2\plate_files\dp0\SYS\DM\SYS.scdoc
/title,plate--Modal (A5)
*DIM,_wb_ProjectScratch_dir,string,248
_wb_ProjectScratch_dir(1) = 'D:\OneDrive\3.UFSC\MS-2021.2\1.Vibroacustica_computacional\work2\plate_files\dp0\SYS\MECH\'
*DIM,_wb_SolverFiles_dir,string,248
_wb_SolverFiles_dir(1) = 'D:\OneDrive\3.UFSC\MS-2021.2\1.Vibroacustica_computacional\work2\plate_files\dp0\SYS\MECH\'
*DIM,_wb_userfiles_dir,string,248
_wb_userfiles_dir(1) = 'D:\OneDrive\3.UFSC\MS-2021.2\1.Vibroacustica_computacional\work2\plate_files\user_files\'
/com,--- Data in consistent MKS units. See Solving Units in the help system for more information.
/units,MKS
/nopr
/wb,file,start              !  signify a WB generated input file
/prep7
! Turn off shape checking because checks already performed inside WB mesher.
! See help system for more information.
SHPP,OFF,,NOWARN
/nolist
etcon,set             ! allow ANSYS to choose best KEYOP's for 180x elements
/com,*********** Nodes for the whole assembly ***********
nblock,3,,1178
(1i9,3e20.9e3)
        1     0.000000000E+00     4.010000000E-01     0.000000000E+00
        2     1.000000000E-02     4.010000000E-01     0.000000000E+00
        3     0.000000000E+00     3.810000000E-01     0.000000000E+00
        4     0.000000000E+00     3.910000000E-01     0.000000000E+00
        5     1.000000000E-02     3.810000000E-01     0.000000000E+00
        6     1.000000000E-02     3.910000000E-01     0.000000000E+00
        7     1.000000000E-02     1.190000000E-01     0.000000000E+00
        8     0.000000000E+00     1.190000000E-01     0.000000000E+00
        9     0.000000000E+00     9.900000000E-02     0.000000000E+00
       10     0.000000000E+00     1.090000000E-01     0.000000000E+00
       11     1.000000000E-02     9.900000000E-02     0.000000000E+00
       12     1.000000000E-02     1.090000000E-01     0.000000000E+00
       13     2.000000000E-01     2.410000000E-01     0.000000000E+00
       14     1.900000000E-01     2.410000000E-01     0.000000000E+00
       15     2.000000000E-01     2.810000000E-01     0.000000000E+00
       16     2.000000000E-01     2.510000000E-01     0.000000000E+00
       17     2.000000000E-01     2.610000000E-01     0.000000000E+00
       18     2.000000000E-01     2.710000000E-01     0.000000000E+00
       19     1.900000000E-01     2.810000000E-01     0.000000000E+00
       20     1.900000000E-01     2.510000000E-01     0.000000000E+00
! ... 1052 like lines cut
/wb,elem,start            !  set before creation of elements
/com,*********** Elements for Body 1 "SYS\Surface" ***********
et,1,181
keyo,1,3,2
eblock,19,solid,,1000
(19i9)
        1        1        1        1        0        0        0        0        4        0        1       10        9       11       12
        1        1        1        1        0        0        0        0        4        0        2       12        7        8       10
        1        1        1        1        0        0        0        0        4        0        3       18       15       19       22
        1        1        1        1        0        0        0        0        4        0        4       22       21       17       18
        1        1        1        1        0        0        0        0        4        0        5       21       20       16       17
        1        1        1        1        0        0        0        0        4        0        6       20       14       13       16
        1        1        1        1        0        0        0        0        4        0        7        4        3        5        6
        1        1        1        1        0        0        0        0        4        0        8        6        2        1        4
        1        1        1        1        0        0        0        0        4        0        9      157      984      183      152
        1        1        1        1        0        0        0        0        4        0       10      152      204      898      157
        1        1        1        1        0        0        0        0        4        0       11      183     1024      163      152
        1        1        1        1        0        0        0        0        4        0       12      163      205      204      152
        1        1        1        1        0        0        0        0        4        0       13      209      921      162      153
        1        1        1        1        0        0        0        0        4        0       14      153      164      210      209
        1        1        1        1        0        0        0        0        4        0       15      162      959     1003      153
        1        1        1        1        0        0        0        0        4        0       16     1003      972      164      153
        1        1        1        1        0        0        0        0        4        0       17      195      194      158     1058
        1        1        1        1        0        0        0        0        4        0       18     1058      165      196      195
        1        1        1        1        0        0        0        0        4        0       19      158     1032      169     1058
        1        1        1        1        0        0        0        0        4        0       20      169      212      165     1058
! ... 981 like lines cut
!Material Id = {FCBA77DE-D64A-4D36-BA84-E6C56F79473B}
/wb,elem,end               !  done creating elements
/com,*********** Send User Defined Coordinate System(s) ***********
csys,0
toffst,273.15,  ! Temperature offset from absolute zero
/com,*********** Set Reference Temperature ***********
tref,22.
/wb,mat,start              !  starting to send materials
/com,*********** Send Materials ***********
Temperature = 'TEMP' ! Temperature
MP,DENS,1,7870,	! kg m^-3
MP,ALPX,1,1.2e-05,	! C^-1
MP,C,1,434,	! J kg^-1 C^-1
MP,KXX,1,60.5,	! W m^-1 C^-1
MP,RSVX,1,1.7e-07,	! kg m^3 A^-2 s^-3
MP,EX,1,186000000000,	! Pa
MP,NUXY,1,0.3,
MP,MURX,1,10000,

/wb,mat,end                !  done sending materials
/com,*********** Send Sheet Properties ***********
sectype,1,shell
secdata,1.6e-003
secoff,mid

!************************* Model Summary ********************
!SYS\Surface,	Structural Steel,	matid,	1
!************************* End Model Summary ********************
! get the diagonal of the bounding box. Needed later for other things
*get,_xmin,node,,mnloc,x
*get,_ymin,node,,mnloc,y
*get,_zmin,node,,mnloc,z
*get,_xmax,node,,mxloc,x
*get,_ymax,node,,mxloc,y
*get,_zmax,node,,mxloc,z
_ASMDIAG=(_xmax-_xmin)*(_xmax-_xmin)+(_ymax-_ymin)*(_ymax-_ymin)+(_zmax-_zmin)*(_zmax-_zmin)
_ASMDIAG=SQRT(_ASMDIAG)
/wb,contact,start          !  starting to send contact
/wb,contact,end            !  done creating contacts
CMBLOCK,NODE_OF_INTEREST,NODE,        1
(8i10)
       882
/golist
/wb,load,start             !  starting to send loads
/com,*********** Fixed Supports ***********
CMBLOCK,_FIXEDSU,NODE,       22
(8i10)
         1         2         3         4         5         6         7         8
         9        10        11        12        13        14        15        16
        17        18        19        20        21        22
cmsel,s,_FIXEDSU
d,all,all
nsel,all
/gst,on,on
fini
*get,_numnode,node,0,count
*get,_numelem,elem,0,count
*get, _MAXELEMNUM, elem, 0, NUM, MAX
*get, _MAXNODENUM, node, 0, NUM, MAX
*get, _MAXELEMTYPE, etyp, 0, NUM, MAX
*get, _MAXREALCONST, real, 0, NUM, MAX
/go
/wb,load,end               !  done creating loads
/com,--- Number of total nodes = %_numnode%
/com,--- Number of contact elements = 0
/com,--- Number of spring elements = 0
/com,--- Number of bearing elements = 0
/com,--- Number of solid elements = 1000
/com,--- Number of condensed parts = 0
/com,--- Number of total elements = %_numelem%
*get,_wallbsol,active,,time,wall
/solu
antype,2                   ! modal analysis
_thickRatio=  0     ! Ratio of thick parts in the model
modopt,lanb,40
outres,erase
outres,all,none
outres,nsol,all
outres,etmp,all
mxpand                    ! default expand in case of complex solution
dmpopt,esav,no
dmpopt,emat,no
dmpopt,full,no
! ****** Begin Command Snippet ******
!   Commands inserted into this file will be executed just prior to the ANSYS SOLVE command.
!   These commands may supersede command settings set by Workbench.

!   Active UNIT system in Workbench when this object was created:  Metric (mm, kg, N, s, mV, mA)
!   NOTE:  Any data that requires units (such as mass) is assumed to be in the consistent solver unit system.
!                See Solving Units in the help system for more information.


MODOPT,,40,,,,OFF
! ****** End   Command Snippet ******
! *********** WB SOLVE COMMAND ***********
! check interactive state
*get,ANSINTER_,active,,int
*if,ANSINTER_,ne,0,then
/eof
*endif
solve
/com *************** Write FE CONNECTORS ********* 
CEWRITE,file,ce,,INTE
*get,_nmodalsolproc,active,0,numcpu
fini
/nopr
*get,_numnode,node,0,count
*get,_numelem,elem,0,count
*get, _MAXELEMNUM, elem, 0, NUM, MAX
*get, _MAXNODENUM, node, 0, NUM, MAX,,,INTERNAL
*get, _MAXELEMTYPE, etyp, 0, NUM, MAX
*get, _MAXREALCONST, real, 0, NUM, MAX
/gopr
*get,_wallasol,active,,time,wall
/post1
/nopr
*dim,_direction,CHAR,6,1
_direction(1) = 'X'
_direction(2) = 'Y'
_direction(3) = 'Z'
_direction(4) = 'ROTX'
_direction(5) = 'ROTY'
_direction(6) = 'ROTZ'
*get,_lastLS,active,0,set,LSTP
*get,_beginset,active,0,set,nset,first,_lastLS
*get,_endset,active,0,set,nset,last,_lastLS
_nummodes = 0
*if,_endset,gt,0,then
_nummodes = _endset - _beginset + 1
*endif
*do,i_mode,1,_nummodes
   *do,j_component,1,6
			*get,PFACT_%i_mode%_%j_component%,MODE,%i_mode%,PFACT,,DIREC,_direction(%j_component%)
   *enddo
*enddo
*dim,_tmdirection,CHAR,6,1
_tmdirection(1) = 'X'
_tmdirection(2) = 'Y'
_tmdirection(3) = 'Z'
_tmdirection(4) = 'X'
_tmdirection(5) = 'Y'
_tmdirection(6) = 'Z'
*do,j_component,1,6
    *if,j_component,gt,3,then
        *get,TOTALMASS_%j_component%,ELEM,0,IOR,_tmdirection(%j_component%)
    *else
        *get,TOTALMASS_%j_component%,ELEM,0,MTOT,_tmdirection(%j_component%)
    *endif
*enddo
/gopr
xmlo,ENCODING,ISO-8859-1
xmlo,parm
/xml,parm,xml
fini
/gopr
*get,_walldone,active,,time,wall
_preptime=(_wallbsol-_wallstrt)*3600
_solvtime=(_wallasol-_wallbsol)*3600
_posttime=(_walldone-_wallasol)*3600
_totaltim=(_walldone-_wallstrt)*3600
*get,_dlbratio,active,0,solu,dlbr
*get,_combtime,active,0,solu,comb
/com,--- Total number of nodes = %_numnode%
/com,--- Total number of elements = %_numelem%
/com,--- Element load balance ratio = %_dlbratio%
/com,--- Time to combine distributed files = %_combtime%
/wb,file,end               ! done with WB generated input
